Ben
  MatStudio         3D                             0

  6  6  0  0  0  0  0  0  0  0999 V2000
    0.0241   -1.6788   -0.7133 C   0  0  0  0  0  0  0  0  0  1
   -1.2501   -0.8924   -0.3534 C   0  0  0  0  0  0  0  0  0  2
   -1.1386    0.5222    0.2450 C   0  0  0  0  0  0  0  0  0  3
    0.2471    1.1504    0.4834 C   0  0  0  0  0  0  0  0  0  4
    1.5213    0.3640    0.1235 C   0  0  0  0  0  0  0  0  0  5
    1.4098   -1.0506   -0.4749 C   0  0  0  0  0  0  0  0  0  6
  3  2  2  0  0  0
  4  3  1  0  0  0
  5  4  2  0  0  0
  6  5  1  0  0  0
  1  2  1  0  0  0
  1  6  2  0  0  0
M  END
