MYX_AB
  MatStudio         3D                             0

 10 11  0  0  0  0  0  0  0  0999 V2000
   -3.7151    0.5312   -0.0003 C   0  0  0  0  0  0  0  0  0  0
   -3.4854   -0.9685    0.0004 N   0  0  0  0  0  0  0  0  0  0
   -2.0241   -1.2265    0.0010 N   0  0  0  0  0  0  0  0  0  0
   -1.3436    0.1160    0.0009 C   0  0  0  0  0  0  0  0  0  0
   -2.3684    1.2158   -0.0000 N   0  0  0  0  0  0  0  0  0  0
    0.1812    0.3315    0.0012 C   0  0  0  0  0  0  0  0  0  0
    1.2070   -0.7699    0.0016 N   0  0  0  0  0  0  0  0  0  0
    2.5395   -0.1170    0.0022 N   0  0  0  0  0  0  0  0  0  0
    2.3447    1.3875    0.0024 C   0  0  0  0  0  0  0  0  0  0
    0.8610    1.6721    0.0019 N   0  0  0  0  0  0  0  0  0  0
  3  2  1  0  0  0
  4  3  2  0  0  0
  5  4  1  0  0  0
  1  2  1  0  0  0
  1  5  2  0  0  0
  8  7  1  0  0  0
  9  8  2  0  0  0
 10  9  1  0  0  0
  6  7  2  0  0  0
  6 10  1  0  0  0
  4  6  1  0  0  0
M  END
