
  Ketcher 12232122262D 1   1.00000     0.00000     0

 48 52  0     0  0            999 V2000
   -2.3750    1.7250    0.0000 C   0  0  0  0  0  0  0  0  0  0  0  0
   -1.3750    1.7250    0.0000 C   0  0  0  0  0  0  0  0  0  0  0  0
   -3.0821    1.0179    0.0000 C   0  0  0  0  0  0  0  0  0  0  0  0
   -2.0821    1.0179    0.0000 C   0  0  0  0  0  0  0  0  0  0  0  0
   -3.0821    0.0179    0.0000 C   0  0  0  0  0  0  0  0  0  0  0  0
   -2.0821    0.0179    0.0000 C   0  0  0  0  0  0  0  0  0  0  0  0
   -1.3750    0.7250    0.0000 C   0  0  0  0  0  0  0  0  0  0  0  0
   -2.3750    0.7250    0.0000 C   0  0  0  0  0  0  0  0  0  0  0  0
   -0.6679    2.4321    0.0000 C   0  0  0  0  0  0  0  0  0  0  0  0
   -1.1679    3.2981    0.0000 N   0  0  0  0  0  0  0  0  0  0  0  0
    0.0392    3.1392    0.0000 N   0  0  0  0  0  0  0  0  0  0  0  0
    0.2980    2.1733    0.0000 N   0  0  0  0  0  0  0  0  0  0  0  0
   -1.1679    4.2981    0.0000 O   0  0  0  0  0  0  0  0  0  0  0  0
   -1.8750    4.0052    0.0000 O   0  0  0  0  0  0  0  0  0  0  0  0
    0.0392    4.1392    0.0000 O   0  0  0  0  0  0  0  0  0  0  0  0
    0.7463    3.8463    0.0000 O   0  0  0  0  0  0  0  0  0  0  0  0
    1.1641    2.6733    0.0000 O   0  0  0  0  0  0  0  0  0  0  0  0
    1.1641    1.6733    0.0000 O   0  0  0  0  0  0  0  0  0  0  0  0
   -2.8750    1.5910    0.0000 C   0  0  0  0  0  0  0  0  0  0  0  0
   -3.3750    2.4571    0.0000 N   0  0  0  0  0  0  0  0  0  0  0  0
   -3.8750    1.5910    0.0000 N   0  0  0  0  0  0  0  0  0  0  0  0
   -4.3409    2.7159    0.0000 O   0  0  0  0  0  0  0  0  0  0  0  0
   -2.1679    2.2981    0.0000 N   0  0  0  0  0  0  0  0  0  0  0  0
   -2.4267    3.2641    0.0000 O   0  0  0  0  0  0  0  0  0  0  0  0
   -1.3019    2.7981    0.0000 O   0  0  0  0  0  0  0  0  0  0  0  0
   -3.3750    3.4571    0.0000 O   0  0  0  0  0  0  0  0  0  0  0  0
   -4.5821    2.2981    0.0000 O   0  0  0  0  0  0  0  0  0  0  0  0
   -4.8409    1.3322    0.0000 O   0  0  0  0  0  0  0  0  0  0  0  0
   -3.7892    0.3108    0.0000 C   0  0  0  0  0  0  0  0  0  0  0  0
   -3.2892   -0.5552    0.0000 N   0  0  0  0  0  0  0  0  0  0  0  0
   -4.7551    0.5696    0.0000 N   0  0  0  0  0  0  0  0  0  0  0  0
   -4.4963   -0.3963    0.0000 N   0  0  0  0  0  0  0  0  0  0  0  0
   -5.6212    1.0696    0.0000 O   0  0  0  0  0  0  0  0  0  0  0  0
   -5.6212    0.0696    0.0000 O   0  0  0  0  0  0  0  0  0  0  0  0
   -5.4963   -0.3963    0.0000 O   0  0  0  0  0  0  0  0  0  0  0  0
   -4.9963   -1.2623    0.0000 O   0  0  0  0  0  0  0  0  0  0  0  0
   -3.7892   -1.4213    0.0000 O   0  0  0  0  0  0  0  0  0  0  0  0
   -2.5821   -1.2623    0.0000 O   0  0  0  0  0  0  0  0  0  0  0  0
   -1.2161   -0.4821    0.0000 C   0  0  0  0  0  0  0  0  0  0  0  0
   -1.4749   -1.4480    0.0000 N   0  0  0  0  0  0  0  0  0  0  0  0
   -0.3501   -0.9821    0.0000 N   0  0  0  0  0  0  0  0  0  0  0  0
   -0.3501    0.0179    0.0000 N   0  0  0  0  0  0  0  0  0  0  0  0
   -2.1820   -2.1551    0.0000 O   0  0  0  0  0  0  0  0  0  0  0  0
   -0.9749   -2.3141    0.0000 O   0  0  0  0  0  0  0  0  0  0  0  0
   -0.0912   -1.9480    0.0000 O   0  0  0  0  0  0  0  0  0  0  0  0
    0.6159   -0.7233    0.0000 O   0  0  0  0  0  0  0  0  0  0  0  0
   -0.0912    0.9838    0.0000 O   0  0  0  0  0  0  0  0  0  0  0  0
    0.6159   -0.2409    0.0000 O   0  0  0  0  0  0  0  0  0  0  0  0
  1  2  1  0     0  0
  1  3  1  0     0  0
  3  4  1  0     0  0
  2  4  1  0     0  0
  3  5  1  0     0  0
  4  6  1  0     0  0
  2  7  1  0     0  0
  1  8  1  0     0  0
  5  6  1  0     0  0
  7  8  1  0     0  0
  8  5  1  0     0  0
  7  6  1  0     0  0
  2  9  1  0     0  0
  9 10  1  0     0  0
  9 11  1  0     0  0
  9 12  1  0     0  0
 10 13  2  0     0  0
 10 14  2  0     0  0
 11 15  2  0     0  0
 11 16  2  0     0  0
 12 17  2  0     0  0
 12 18  2  0     0  0
  8 19  1  0     0  0
 19 20  1  0     0  0
 19 21  1  0     0  0
 20 22  2  0     0  0
 19 23  1  0     0  0
 23 24  2  0     0  0
 23 25  2  0     0  0
 20 26  2  0     0  0
 21 27  2  0     0  0
 21 28  2  0     0  0
  3 29  1  0     0  0
 29 30  1  0     0  0
 29 31  1  0     0  0
 29 32  1  0     0  0
 31 33  2  0     0  0
 31 34  2  0     0  0
 32 35  2  0     0  0
 32 36  2  0     0  0
 30 37  2  0     0  0
 30 38  2  0     0  0
  6 39  1  0     0  0
 39 40  1  0     0  0
 39 41  1  0     0  0
 39 42  1  0     0  0
 40 43  2  0     0  0
 40 44  2  0     0  0
 41 45  2  0     0  0
 41 46  2  0     0  0
 42 47  2  0     0  0
 42 48  2  0     0  0
M  END
